Circuit: * C:\Users\Usuario\Documents\UdeM\2022-1\repos-electronica\laboratorio\sesion7\bjt_motor-driver.asc

Direct Newton iteration for .op point succeeded.

Date: Mon Apr 17 23:07:32 2023
Total elapsed time: 0.250 seconds.

tnom = 27
temp = 27
method = modified trap
totiter = 20661
traniter = 20656
tranpoints = 10252
accept = 10204
rejected = 48
matrix size = 9
fillins = 0
solver = Normal
Matrix Compiler1: 456 bytes object code size  0.2/0.1/[0.1]
Matrix Compiler2: 667 bytes object code size  0.1/0.2/[0.1]

