Circuit: * C:\Users\Usuario\Documents\UdeM\2022-1\repos-electronica\laboratorio\sesion7\bjt_relay-driver.asc

Direct Newton iteration for .op point succeeded.

Date: Mon Apr 17 14:03:52 2023
Total elapsed time: 0.336 seconds.

tnom = 27
temp = 27
method = modified trap
totiter = 20628
traniter = 20623
tranpoints = 10233
accept = 10191
rejected = 42
matrix size = 9
fillins = 0
solver = Normal
Matrix Compiler1: 456 bytes object code size  0.2/0.1/[0.1]
Matrix Compiler2: 667 bytes object code size  0.1/0.2/[0.1]

